
---------- Begin Simulation Statistics ----------
sim_seconds                                  5.986576                       # Number of seconds simulated
sim_ticks                                5986575575000                       # Number of ticks simulated
final_tick                               5986575575000                       # Number of ticks from beginning of simulation (restored from checkpoints and never reset)
sim_freq                                 1000000000000                       # Frequency of simulated ticks
host_inst_rate                                1076601                       # Simulator instruction rate (inst/s)
host_op_rate                                  1724525                       # Simulator op (including micro ops) rate (op/s)
host_tick_rate                             6917773183                       # Simulator tick rate (ticks/s)
host_mem_usage                                 663336                       # Number of bytes of host memory used
host_seconds                                   865.39                       # Real time elapsed on the host
sim_insts                                   931679922                       # Number of instructions simulated
sim_ops                                    1492387812                       # Number of ops (including micro ops) simulated
system.voltage_domain.voltage                       1                       # Voltage in Volts
system.clk_domain.clock                          1000                       # Clock period in ticks
system.mem_ctrls.pwrStateResidencyTicks::UNDEFINED 5986575575000                       # Cumulative time (in ticks) in various power states
system.mem_ctrls.bytes_read::cpu.inst           22464                       # Number of bytes read from this memory
system.mem_ctrls.bytes_read::cpu.data         1094464                       # Number of bytes read from this memory
system.mem_ctrls.bytes_read::total            1116928                       # Number of bytes read from this memory
system.mem_ctrls.bytes_inst_read::cpu.inst        22464                       # Number of instructions bytes read from this memory
system.mem_ctrls.bytes_inst_read::total         22464                       # Number of instructions bytes read from this memory
system.mem_ctrls.bytes_written::writebacks    889998144                       # Number of bytes written to this memory
system.mem_ctrls.bytes_written::total       889998144                       # Number of bytes written to this memory
system.mem_ctrls.num_reads::cpu.inst              351                       # Number of read requests responded to by this memory
system.mem_ctrls.num_reads::cpu.data            17101                       # Number of read requests responded to by this memory
system.mem_ctrls.num_reads::total               17452                       # Number of read requests responded to by this memory
system.mem_ctrls.num_writes::writebacks      13906221                       # Number of write requests responded to by this memory
system.mem_ctrls.num_writes::total           13906221                       # Number of write requests responded to by this memory
system.mem_ctrls.bw_read::cpu.inst               3752                       # Total read bandwidth from this memory (bytes/s)
system.mem_ctrls.bw_read::cpu.data             182820                       # Total read bandwidth from this memory (bytes/s)
system.mem_ctrls.bw_read::total                186572                       # Total read bandwidth from this memory (bytes/s)
system.mem_ctrls.bw_inst_read::cpu.inst          3752                       # Instruction read bandwidth from this memory (bytes/s)
system.mem_ctrls.bw_inst_read::total             3752                       # Instruction read bandwidth from this memory (bytes/s)
system.mem_ctrls.bw_write::writebacks       148665649                       # Write bandwidth from this memory (bytes/s)
system.mem_ctrls.bw_write::total            148665649                       # Write bandwidth from this memory (bytes/s)
system.mem_ctrls.bw_total::writebacks       148665649                       # Total bandwidth to/from this memory (bytes/s)
system.mem_ctrls.bw_total::cpu.inst              3752                       # Total bandwidth to/from this memory (bytes/s)
system.mem_ctrls.bw_total::cpu.data            182820                       # Total bandwidth to/from this memory (bytes/s)
system.mem_ctrls.bw_total::total            148852221                       # Total bandwidth to/from this memory (bytes/s)
system.pwrStateResidencyTicks::UNDEFINED 5986575575000                       # Cumulative time (in ticks) in various power states
system.cpu_voltage_domain.voltage                   1                       # Voltage in Volts
system.cpu_clk_domain.clock                       500                       # Clock period in ticks
system.cpu.dtb.walker.pwrStateResidencyTicks::UNDEFINED 5986575575000                       # Cumulative time (in ticks) in various power states
system.cpu.dtb.rdAccesses                   382684115                       # TLB accesses on read requests
system.cpu.dtb.wrAccesses                    56342498                       # TLB accesses on write requests
system.cpu.dtb.rdMisses                       7936609                       # TLB misses on read requests
system.cpu.dtb.wrMisses                           272                       # TLB misses on write requests
system.cpu.apic_clk_domain.clock                 8000                       # Clock period in ticks
system.cpu.interrupts.pwrStateResidencyTicks::UNDEFINED 5986575575000                       # Cumulative time (in ticks) in various power states
system.cpu.itb.walker.pwrStateResidencyTicks::UNDEFINED 5986575575000                       # Cumulative time (in ticks) in various power states
system.cpu.itb.rdAccesses                           0                       # TLB accesses on read requests
system.cpu.itb.wrAccesses                  1449455658                       # TLB accesses on write requests
system.cpu.itb.rdMisses                             0                       # TLB misses on read requests
system.cpu.itb.wrMisses                            37                       # TLB misses on write requests
system.cpu.workload.numSyscalls                     9                       # Number of system calls
system.cpu.pwrStateResidencyTicks::ON    5986575575000                       # Cumulative time (in ticks) in various power states
system.cpu.numCycles                      11973151150                       # number of cpu cycles simulated
system.cpu.numWorkItemsStarted                      0                       # number of work items this cpu started
system.cpu.numWorkItemsCompleted                    0                       # number of work items this cpu completed
system.cpu.committedInsts                   931679922                       # Number of instructions committed
system.cpu.committedOps                    1492387812                       # Number of ops (including micro ops) committed
system.cpu.num_int_alu_accesses            1491881098                       # Number of integer alu accesses
system.cpu.num_fp_alu_accesses                   1975                       # Number of float alu accesses
system.cpu.num_vec_alu_accesses                     0                       # Number of vector alu accesses
system.cpu.num_func_calls                     1080242                       # number of times a function call or return occured
system.cpu.num_conditional_control_insts     29571460                       # number of instructions that are conditional controls
system.cpu.num_int_insts                   1491881098                       # number of integer instructions
system.cpu.num_fp_insts                          1975                       # number of float instructions
system.cpu.num_vec_insts                            0                       # number of vector instructions
system.cpu.num_int_register_reads          2934935126                       # number of times the integer registers were read
system.cpu.num_int_register_writes         1545692954                       # number of times the integer registers were written
system.cpu.num_fp_register_reads                 3787                       # number of times the floating registers were read
system.cpu.num_fp_register_writes                1492                       # number of times the floating registers were written
system.cpu.num_vec_register_reads                   0                       # number of times the vector registers were read
system.cpu.num_vec_register_writes                  0                       # number of times the vector registers were written
system.cpu.num_cc_register_reads            159199331                       # number of times the CC registers were read
system.cpu.num_cc_register_writes           523310542                       # number of times the CC registers were written
system.cpu.num_mem_refs                     439026611                       # number of memory refs
system.cpu.num_load_insts                   382684113                       # Number of load instructions
system.cpu.num_store_insts                   56342498                       # Number of store instructions
system.cpu.num_idle_cycles                          0                       # Number of idle cycles
system.cpu.num_busy_cycles                11973151150                       # Number of busy cycles
system.cpu.not_idle_fraction                        1                       # Percentage of non-idle cycles
system.cpu.idle_fraction                            0                       # Percentage of idle cycles
system.cpu.Branches                          30742412                       # Number of branches fetched
system.cpu.op_class::No_OpClass                505293      0.03%      0.03% # Class of executed instruction
system.cpu.op_class::IntAlu                 915024162     61.31%     61.35% # Class of executed instruction
system.cpu.op_class::IntMult                135270004      9.06%     70.41% # Class of executed instruction
system.cpu.op_class::IntDiv                   2560782      0.17%     70.58% # Class of executed instruction
system.cpu.op_class::FloatAdd                      10      0.00%     70.58% # Class of executed instruction
system.cpu.op_class::FloatCmp                       0      0.00%     70.58% # Class of executed instruction
system.cpu.op_class::FloatCvt                       0      0.00%     70.58% # Class of executed instruction
system.cpu.op_class::FloatMult                      0      0.00%     70.58% # Class of executed instruction
system.cpu.op_class::FloatMultAcc                   0      0.00%     70.58% # Class of executed instruction
system.cpu.op_class::FloatDiv                       0      0.00%     70.58% # Class of executed instruction
system.cpu.op_class::FloatMisc                      0      0.00%     70.58% # Class of executed instruction
system.cpu.op_class::FloatSqrt                      0      0.00%     70.58% # Class of executed instruction
system.cpu.op_class::SimdAdd                      374      0.00%     70.58% # Class of executed instruction
system.cpu.op_class::SimdAddAcc                     0      0.00%     70.58% # Class of executed instruction
system.cpu.op_class::SimdAlu                       68      0.00%     70.58% # Class of executed instruction
system.cpu.op_class::SimdCmp                        0      0.00%     70.58% # Class of executed instruction
system.cpu.op_class::SimdCvt                      108      0.00%     70.58% # Class of executed instruction
system.cpu.op_class::SimdMisc                     214      0.00%     70.58% # Class of executed instruction
system.cpu.op_class::SimdMult                       0      0.00%     70.58% # Class of executed instruction
system.cpu.op_class::SimdMultAcc                    0      0.00%     70.58% # Class of executed instruction
system.cpu.op_class::SimdShift                    186      0.00%     70.58% # Class of executed instruction
system.cpu.op_class::SimdShiftAcc                   0      0.00%     70.58% # Class of executed instruction
system.cpu.op_class::SimdSqrt                       0      0.00%     70.58% # Class of executed instruction
system.cpu.op_class::SimdFloatAdd                   0      0.00%     70.58% # Class of executed instruction
system.cpu.op_class::SimdFloatAlu                   0      0.00%     70.58% # Class of executed instruction
system.cpu.op_class::SimdFloatCmp                   0      0.00%     70.58% # Class of executed instruction
system.cpu.op_class::SimdFloatCvt                   0      0.00%     70.58% # Class of executed instruction
system.cpu.op_class::SimdFloatDiv                   0      0.00%     70.58% # Class of executed instruction
system.cpu.op_class::SimdFloatMisc                  0      0.00%     70.58% # Class of executed instruction
system.cpu.op_class::SimdFloatMult                  0      0.00%     70.58% # Class of executed instruction
system.cpu.op_class::SimdFloatMultAcc               0      0.00%     70.58% # Class of executed instruction
system.cpu.op_class::SimdFloatSqrt                  0      0.00%     70.58% # Class of executed instruction
system.cpu.op_class::MemRead                382684045     25.64%     96.22% # Class of executed instruction
system.cpu.op_class::MemWrite                56342063      3.78%    100.00% # Class of executed instruction
system.cpu.op_class::FloatMemRead                  68      0.00%    100.00% # Class of executed instruction
system.cpu.op_class::FloatMemWrite                435      0.00%    100.00% # Class of executed instruction
system.cpu.op_class::IprAccess                      0      0.00%    100.00% # Class of executed instruction
system.cpu.op_class::InstPrefetch                   0      0.00%    100.00% # Class of executed instruction
system.cpu.op_class::total                 1492387812                       # Class of executed instruction
system.cpu.dcache.tags.pwrStateResidencyTicks::UNDEFINED 5986575575000                       # Cumulative time (in ticks) in various power states
system.cpu.dcache.tags.tagsinuse           511.890007                       # Cycle average of tags in use
system.cpu.dcache.tags.total_refs           439026613                       # Total number of references to valid blocks.
system.cpu.dcache.tags.sampled_refs           1767164                       # Sample count of references to valid blocks.
system.cpu.dcache.tags.avg_refs            248.435693                       # Average number of references to valid blocks.
system.cpu.dcache.tags.warmup_cycle            759000                       # Cycle when the warmup percentage was hit.
system.cpu.dcache.tags.occ_blocks::cpu.data   511.890007                       # Average occupied blocks per requestor
system.cpu.dcache.tags.occ_percent::cpu.data     0.999785                       # Average percentage of cache occupancy
system.cpu.dcache.tags.occ_percent::total     0.999785                       # Average percentage of cache occupancy
system.cpu.dcache.tags.occ_task_id_blocks::1024          512                       # Occupied blocks per task id
system.cpu.dcache.tags.age_task_id_blocks_1024::0           12                       # Occupied blocks per task id
system.cpu.dcache.tags.age_task_id_blocks_1024::1           18                       # Occupied blocks per task id
system.cpu.dcache.tags.age_task_id_blocks_1024::2          295                       # Occupied blocks per task id
system.cpu.dcache.tags.age_task_id_blocks_1024::3          172                       # Occupied blocks per task id
system.cpu.dcache.tags.age_task_id_blocks_1024::4           15                       # Occupied blocks per task id
system.cpu.dcache.tags.occ_task_id_percent::1024            1                       # Percentage of cache occupancy per task id
system.cpu.dcache.tags.tag_accesses        1757873616                       # Number of tag accesses
system.cpu.dcache.tags.data_accesses       1757873616                       # Number of data accesses
system.cpu.dcache.pwrStateResidencyTicks::UNDEFINED 5986575575000                       # Cumulative time (in ticks) in various power states
system.cpu.dcache.ReadReq_hits::cpu.data    380933945                       # number of ReadReq hits
system.cpu.dcache.ReadReq_hits::total       380933945                       # number of ReadReq hits
system.cpu.dcache.WriteReq_hits::cpu.data       714931                       # number of WriteReq hits
system.cpu.dcache.WriteReq_hits::total         714931                       # number of WriteReq hits
system.cpu.dcache.demand_hits::cpu.data     381648876                       # number of demand (read+write) hits
system.cpu.dcache.demand_hits::total        381648876                       # number of demand (read+write) hits
system.cpu.dcache.overall_hits::cpu.data    381648876                       # number of overall hits
system.cpu.dcache.overall_hits::total       381648876                       # number of overall hits
system.cpu.dcache.ReadReq_misses::cpu.data      1750170                       # number of ReadReq misses
system.cpu.dcache.ReadReq_misses::total       1750170                       # number of ReadReq misses
system.cpu.dcache.WriteReq_misses::cpu.data     55627567                       # number of WriteReq misses
system.cpu.dcache.WriteReq_misses::total     55627567                       # number of WriteReq misses
system.cpu.dcache.demand_misses::cpu.data     57377737                       # number of demand (read+write) misses
system.cpu.dcache.demand_misses::total       57377737                       # number of demand (read+write) misses
system.cpu.dcache.overall_misses::cpu.data     57377737                       # number of overall misses
system.cpu.dcache.overall_misses::total      57377737                       # number of overall misses
system.cpu.dcache.ReadReq_miss_latency::cpu.data  58365160500                       # number of ReadReq miss cycles
system.cpu.dcache.ReadReq_miss_latency::total  58365160500                       # number of ReadReq miss cycles
system.cpu.dcache.WriteReq_miss_latency::cpu.data 4097017809500                       # number of WriteReq miss cycles
system.cpu.dcache.WriteReq_miss_latency::total 4097017809500                       # number of WriteReq miss cycles
system.cpu.dcache.demand_miss_latency::cpu.data 4155382970000                       # number of demand (read+write) miss cycles
system.cpu.dcache.demand_miss_latency::total 4155382970000                       # number of demand (read+write) miss cycles
system.cpu.dcache.overall_miss_latency::cpu.data 4155382970000                       # number of overall miss cycles
system.cpu.dcache.overall_miss_latency::total 4155382970000                       # number of overall miss cycles
system.cpu.dcache.ReadReq_accesses::cpu.data    382684115                       # number of ReadReq accesses(hits+misses)
system.cpu.dcache.ReadReq_accesses::total    382684115                       # number of ReadReq accesses(hits+misses)
system.cpu.dcache.WriteReq_accesses::cpu.data     56342498                       # number of WriteReq accesses(hits+misses)
system.cpu.dcache.WriteReq_accesses::total     56342498                       # number of WriteReq accesses(hits+misses)
system.cpu.dcache.demand_accesses::cpu.data    439026613                       # number of demand (read+write) accesses
system.cpu.dcache.demand_accesses::total    439026613                       # number of demand (read+write) accesses
system.cpu.dcache.overall_accesses::cpu.data    439026613                       # number of overall (read+write) accesses
system.cpu.dcache.overall_accesses::total    439026613                       # number of overall (read+write) accesses
system.cpu.dcache.ReadReq_miss_rate::cpu.data     0.004573                       # miss rate for ReadReq accesses
system.cpu.dcache.ReadReq_miss_rate::total     0.004573                       # miss rate for ReadReq accesses
system.cpu.dcache.WriteReq_miss_rate::cpu.data     0.987311                       # miss rate for WriteReq accesses
system.cpu.dcache.WriteReq_miss_rate::total     0.987311                       # miss rate for WriteReq accesses
system.cpu.dcache.demand_miss_rate::cpu.data     0.130693                       # miss rate for demand accesses
system.cpu.dcache.demand_miss_rate::total     0.130693                       # miss rate for demand accesses
system.cpu.dcache.overall_miss_rate::cpu.data     0.130693                       # miss rate for overall accesses
system.cpu.dcache.overall_miss_rate::total     0.130693                       # miss rate for overall accesses
system.cpu.dcache.ReadReq_avg_miss_latency::cpu.data 33348.280738                       # average ReadReq miss latency
system.cpu.dcache.ReadReq_avg_miss_latency::total 33348.280738                       # average ReadReq miss latency
system.cpu.dcache.WriteReq_avg_miss_latency::cpu.data 73650.853892                       # average WriteReq miss latency
system.cpu.dcache.WriteReq_avg_miss_latency::total 73650.853892                       # average WriteReq miss latency
system.cpu.dcache.demand_avg_miss_latency::cpu.data 72421.520737                       # average overall miss latency
system.cpu.dcache.demand_avg_miss_latency::total 72421.520737                       # average overall miss latency
system.cpu.dcache.overall_avg_miss_latency::cpu.data 72421.520737                       # average overall miss latency
system.cpu.dcache.overall_avg_miss_latency::total 72421.520737                       # average overall miss latency
system.cpu.dcache.blocked_cycles::no_mshrs            0                       # number of cycles access was blocked
system.cpu.dcache.blocked_cycles::no_targets            0                       # number of cycles access was blocked
system.cpu.dcache.blocked::no_mshrs                 0                       # number of cycles access was blocked
system.cpu.dcache.blocked::no_targets               0                       # number of cycles access was blocked
system.cpu.dcache.avg_blocked_cycles::no_mshrs          nan                       # average number of cycles each access was blocked
system.cpu.dcache.avg_blocked_cycles::no_targets          nan                       # average number of cycles each access was blocked
system.cpu.dcache.writebacks::writebacks         5651                       # number of writebacks
system.cpu.dcache.writebacks::total              5651                       # number of writebacks
system.cpu.dcache.ReadReq_mshr_misses::cpu.data      1750170                       # number of ReadReq MSHR misses
system.cpu.dcache.ReadReq_mshr_misses::total      1750170                       # number of ReadReq MSHR misses
system.cpu.dcache.WriteReq_mshr_misses::cpu.data     55627567                       # number of WriteReq MSHR misses
system.cpu.dcache.WriteReq_mshr_misses::total     55627567                       # number of WriteReq MSHR misses
system.cpu.dcache.demand_mshr_misses::cpu.data     57377737                       # number of demand (read+write) MSHR misses
system.cpu.dcache.demand_mshr_misses::total     57377737                       # number of demand (read+write) MSHR misses
system.cpu.dcache.overall_mshr_misses::cpu.data     57377737                       # number of overall MSHR misses
system.cpu.dcache.overall_mshr_misses::total     57377737                       # number of overall MSHR misses
system.cpu.dcache.ReadReq_mshr_miss_latency::cpu.data  56614990500                       # number of ReadReq MSHR miss cycles
system.cpu.dcache.ReadReq_mshr_miss_latency::total  56614990500                       # number of ReadReq MSHR miss cycles
system.cpu.dcache.WriteReq_mshr_miss_latency::cpu.data 4041390242500                       # number of WriteReq MSHR miss cycles
system.cpu.dcache.WriteReq_mshr_miss_latency::total 4041390242500                       # number of WriteReq MSHR miss cycles
system.cpu.dcache.demand_mshr_miss_latency::cpu.data 4098005233000                       # number of demand (read+write) MSHR miss cycles
system.cpu.dcache.demand_mshr_miss_latency::total 4098005233000                       # number of demand (read+write) MSHR miss cycles
system.cpu.dcache.overall_mshr_miss_latency::cpu.data 4098005233000                       # number of overall MSHR miss cycles
system.cpu.dcache.overall_mshr_miss_latency::total 4098005233000                       # number of overall MSHR miss cycles
system.cpu.dcache.ReadReq_mshr_miss_rate::cpu.data     0.004573                       # mshr miss rate for ReadReq accesses
system.cpu.dcache.ReadReq_mshr_miss_rate::total     0.004573                       # mshr miss rate for ReadReq accesses
system.cpu.dcache.WriteReq_mshr_miss_rate::cpu.data     0.987311                       # mshr miss rate for WriteReq accesses
system.cpu.dcache.WriteReq_mshr_miss_rate::total     0.987311                       # mshr miss rate for WriteReq accesses
system.cpu.dcache.demand_mshr_miss_rate::cpu.data     0.130693                       # mshr miss rate for demand accesses
system.cpu.dcache.demand_mshr_miss_rate::total     0.130693                       # mshr miss rate for demand accesses
system.cpu.dcache.overall_mshr_miss_rate::cpu.data     0.130693                       # mshr miss rate for overall accesses
system.cpu.dcache.overall_mshr_miss_rate::total     0.130693                       # mshr miss rate for overall accesses
system.cpu.dcache.ReadReq_avg_mshr_miss_latency::cpu.data 32348.280738                       # average ReadReq mshr miss latency
system.cpu.dcache.ReadReq_avg_mshr_miss_latency::total 32348.280738                       # average ReadReq mshr miss latency
system.cpu.dcache.WriteReq_avg_mshr_miss_latency::cpu.data 72650.853892                       # average WriteReq mshr miss latency
system.cpu.dcache.WriteReq_avg_mshr_miss_latency::total 72650.853892                       # average WriteReq mshr miss latency
system.cpu.dcache.demand_avg_mshr_miss_latency::cpu.data 71421.520737                       # average overall mshr miss latency
system.cpu.dcache.demand_avg_mshr_miss_latency::total 71421.520737                       # average overall mshr miss latency
system.cpu.dcache.overall_avg_mshr_miss_latency::cpu.data 71421.520737                       # average overall mshr miss latency
system.cpu.dcache.overall_avg_mshr_miss_latency::total 71421.520737                       # average overall mshr miss latency
system.cpu.dcache.replacements                1766652                       # number of replacements
system.cpu.dtb_walker_cache.tags.pwrStateResidencyTicks::UNDEFINED 5986575575000                       # Cumulative time (in ticks) in various power states
system.cpu.dtb_walker_cache.tags.tagsinuse            0                       # Cycle average of tags in use
system.cpu.dtb_walker_cache.tags.total_refs            0                       # Total number of references to valid blocks.
system.cpu.dtb_walker_cache.tags.sampled_refs            0                       # Sample count of references to valid blocks.
system.cpu.dtb_walker_cache.tags.avg_refs          nan                       # Average number of references to valid blocks.
system.cpu.dtb_walker_cache.tags.warmup_cycle            0                       # Cycle when the warmup percentage was hit.
system.cpu.dtb_walker_cache.tags.tag_accesses            0                       # Number of tag accesses
system.cpu.dtb_walker_cache.tags.data_accesses            0                       # Number of data accesses
system.cpu.dtb_walker_cache.pwrStateResidencyTicks::UNDEFINED 5986575575000                       # Cumulative time (in ticks) in various power states
system.cpu.dtb_walker_cache.blocked_cycles::no_mshrs            0                       # number of cycles access was blocked
system.cpu.dtb_walker_cache.blocked_cycles::no_targets            0                       # number of cycles access was blocked
system.cpu.dtb_walker_cache.blocked::no_mshrs            0                       # number of cycles access was blocked
system.cpu.dtb_walker_cache.blocked::no_targets            0                       # number of cycles access was blocked
system.cpu.dtb_walker_cache.avg_blocked_cycles::no_mshrs          nan                       # average number of cycles each access was blocked
system.cpu.dtb_walker_cache.avg_blocked_cycles::no_targets          nan                       # average number of cycles each access was blocked
system.cpu.dtb_walker_cache.replacements            0                       # number of replacements
system.cpu.icache.tags.pwrStateResidencyTicks::UNDEFINED 5986575575000                       # Cumulative time (in ticks) in various power states
system.cpu.icache.tags.tagsinuse           305.919086                       # Cycle average of tags in use
system.cpu.icache.tags.total_refs          1449455658                       # Total number of references to valid blocks.
system.cpu.icache.tags.sampled_refs               351                       # Sample count of references to valid blocks.
system.cpu.icache.tags.avg_refs          4129503.299145                       # Average number of references to valid blocks.
system.cpu.icache.tags.warmup_cycle            439000                       # Cycle when the warmup percentage was hit.
system.cpu.icache.tags.occ_blocks::cpu.inst   305.919086                       # Average occupied blocks per requestor
system.cpu.icache.tags.occ_percent::cpu.inst     0.597498                       # Average percentage of cache occupancy
system.cpu.icache.tags.occ_percent::total     0.597498                       # Average percentage of cache occupancy
system.cpu.icache.tags.occ_task_id_blocks::1024          339                       # Occupied blocks per task id
system.cpu.icache.tags.age_task_id_blocks_1024::0           16                       # Occupied blocks per task id
system.cpu.icache.tags.age_task_id_blocks_1024::1           23                       # Occupied blocks per task id
system.cpu.icache.tags.age_task_id_blocks_1024::4          300                       # Occupied blocks per task id
system.cpu.icache.tags.occ_task_id_percent::1024     0.662109                       # Percentage of cache occupancy per task id
system.cpu.icache.tags.tag_accesses        5797822983                       # Number of tag accesses
system.cpu.icache.tags.data_accesses       5797822983                       # Number of data accesses
system.cpu.icache.pwrStateResidencyTicks::UNDEFINED 5986575575000                       # Cumulative time (in ticks) in various power states
system.cpu.icache.ReadReq_hits::cpu.inst   1449455307                       # number of ReadReq hits
system.cpu.icache.ReadReq_hits::total      1449455307                       # number of ReadReq hits
system.cpu.icache.demand_hits::cpu.inst    1449455307                       # number of demand (read+write) hits
system.cpu.icache.demand_hits::total       1449455307                       # number of demand (read+write) hits
system.cpu.icache.overall_hits::cpu.inst   1449455307                       # number of overall hits
system.cpu.icache.overall_hits::total      1449455307                       # number of overall hits
system.cpu.icache.ReadReq_misses::cpu.inst          351                       # number of ReadReq misses
system.cpu.icache.ReadReq_misses::total           351                       # number of ReadReq misses
system.cpu.icache.demand_misses::cpu.inst          351                       # number of demand (read+write) misses
system.cpu.icache.demand_misses::total            351                       # number of demand (read+write) misses
system.cpu.icache.overall_misses::cpu.inst          351                       # number of overall misses
system.cpu.icache.overall_misses::total           351                       # number of overall misses
system.cpu.icache.ReadReq_miss_latency::cpu.inst     88425000                       # number of ReadReq miss cycles
system.cpu.icache.ReadReq_miss_latency::total     88425000                       # number of ReadReq miss cycles
system.cpu.icache.demand_miss_latency::cpu.inst     88425000                       # number of demand (read+write) miss cycles
system.cpu.icache.demand_miss_latency::total     88425000                       # number of demand (read+write) miss cycles
system.cpu.icache.overall_miss_latency::cpu.inst     88425000                       # number of overall miss cycles
system.cpu.icache.overall_miss_latency::total     88425000                       # number of overall miss cycles
system.cpu.icache.ReadReq_accesses::cpu.inst   1449455658                       # number of ReadReq accesses(hits+misses)
system.cpu.icache.ReadReq_accesses::total   1449455658                       # number of ReadReq accesses(hits+misses)
system.cpu.icache.demand_accesses::cpu.inst   1449455658                       # number of demand (read+write) accesses
system.cpu.icache.demand_accesses::total   1449455658                       # number of demand (read+write) accesses
system.cpu.icache.overall_accesses::cpu.inst   1449455658                       # number of overall (read+write) accesses
system.cpu.icache.overall_accesses::total   1449455658                       # number of overall (read+write) accesses
system.cpu.icache.ReadReq_miss_rate::cpu.inst     0.000000                       # miss rate for ReadReq accesses
system.cpu.icache.ReadReq_miss_rate::total     0.000000                       # miss rate for ReadReq accesses
system.cpu.icache.demand_miss_rate::cpu.inst     0.000000                       # miss rate for demand accesses
system.cpu.icache.demand_miss_rate::total     0.000000                       # miss rate for demand accesses
system.cpu.icache.overall_miss_rate::cpu.inst     0.000000                       # miss rate for overall accesses
system.cpu.icache.overall_miss_rate::total     0.000000                       # miss rate for overall accesses
system.cpu.icache.ReadReq_avg_miss_latency::cpu.inst 251923.076923                       # average ReadReq miss latency
system.cpu.icache.ReadReq_avg_miss_latency::total 251923.076923                       # average ReadReq miss latency
system.cpu.icache.demand_avg_miss_latency::cpu.inst 251923.076923                       # average overall miss latency
system.cpu.icache.demand_avg_miss_latency::total 251923.076923                       # average overall miss latency
system.cpu.icache.overall_avg_miss_latency::cpu.inst 251923.076923                       # average overall miss latency
system.cpu.icache.overall_avg_miss_latency::total 251923.076923                       # average overall miss latency
system.cpu.icache.blocked_cycles::no_mshrs            0                       # number of cycles access was blocked
system.cpu.icache.blocked_cycles::no_targets            0                       # number of cycles access was blocked
system.cpu.icache.blocked::no_mshrs                 0                       # number of cycles access was blocked
system.cpu.icache.blocked::no_targets               0                       # number of cycles access was blocked
system.cpu.icache.avg_blocked_cycles::no_mshrs          nan                       # average number of cycles each access was blocked
system.cpu.icache.avg_blocked_cycles::no_targets          nan                       # average number of cycles each access was blocked
system.cpu.icache.writebacks::writebacks           12                       # number of writebacks
system.cpu.icache.writebacks::total                12                       # number of writebacks
system.cpu.icache.ReadReq_mshr_misses::cpu.inst          351                       # number of ReadReq MSHR misses
system.cpu.icache.ReadReq_mshr_misses::total          351                       # number of ReadReq MSHR misses
system.cpu.icache.demand_mshr_misses::cpu.inst          351                       # number of demand (read+write) MSHR misses
system.cpu.icache.demand_mshr_misses::total          351                       # number of demand (read+write) MSHR misses
system.cpu.icache.overall_mshr_misses::cpu.inst          351                       # number of overall MSHR misses
system.cpu.icache.overall_mshr_misses::total          351                       # number of overall MSHR misses
system.cpu.icache.ReadReq_mshr_miss_latency::cpu.inst     88074000                       # number of ReadReq MSHR miss cycles
system.cpu.icache.ReadReq_mshr_miss_latency::total     88074000                       # number of ReadReq MSHR miss cycles
system.cpu.icache.demand_mshr_miss_latency::cpu.inst     88074000                       # number of demand (read+write) MSHR miss cycles
system.cpu.icache.demand_mshr_miss_latency::total     88074000                       # number of demand (read+write) MSHR miss cycles
system.cpu.icache.overall_mshr_miss_latency::cpu.inst     88074000                       # number of overall MSHR miss cycles
system.cpu.icache.overall_mshr_miss_latency::total     88074000                       # number of overall MSHR miss cycles
system.cpu.icache.ReadReq_mshr_miss_rate::cpu.inst     0.000000                       # mshr miss rate for ReadReq accesses
system.cpu.icache.ReadReq_mshr_miss_rate::total     0.000000                       # mshr miss rate for ReadReq accesses
system.cpu.icache.demand_mshr_miss_rate::cpu.inst     0.000000                       # mshr miss rate for demand accesses
system.cpu.icache.demand_mshr_miss_rate::total     0.000000                       # mshr miss rate for demand accesses
system.cpu.icache.overall_mshr_miss_rate::cpu.inst     0.000000                       # mshr miss rate for overall accesses
system.cpu.icache.overall_mshr_miss_rate::total     0.000000                       # mshr miss rate for overall accesses
system.cpu.icache.ReadReq_avg_mshr_miss_latency::cpu.inst 250923.076923                       # average ReadReq mshr miss latency
system.cpu.icache.ReadReq_avg_mshr_miss_latency::total 250923.076923                       # average ReadReq mshr miss latency
system.cpu.icache.demand_avg_mshr_miss_latency::cpu.inst 250923.076923                       # average overall mshr miss latency
system.cpu.icache.demand_avg_mshr_miss_latency::total 250923.076923                       # average overall mshr miss latency
system.cpu.icache.overall_avg_mshr_miss_latency::cpu.inst 250923.076923                       # average overall mshr miss latency
system.cpu.icache.overall_avg_mshr_miss_latency::total 250923.076923                       # average overall mshr miss latency
system.cpu.icache.replacements                     12                       # number of replacements
system.cpu.itb_walker_cache.tags.pwrStateResidencyTicks::UNDEFINED 5986575575000                       # Cumulative time (in ticks) in various power states
system.cpu.itb_walker_cache.tags.tagsinuse            0                       # Cycle average of tags in use
system.cpu.itb_walker_cache.tags.total_refs            0                       # Total number of references to valid blocks.
system.cpu.itb_walker_cache.tags.sampled_refs            0                       # Sample count of references to valid blocks.
system.cpu.itb_walker_cache.tags.avg_refs          nan                       # Average number of references to valid blocks.
system.cpu.itb_walker_cache.tags.warmup_cycle            0                       # Cycle when the warmup percentage was hit.
system.cpu.itb_walker_cache.tags.tag_accesses            0                       # Number of tag accesses
system.cpu.itb_walker_cache.tags.data_accesses            0                       # Number of data accesses
system.cpu.itb_walker_cache.pwrStateResidencyTicks::UNDEFINED 5986575575000                       # Cumulative time (in ticks) in various power states
system.cpu.itb_walker_cache.blocked_cycles::no_mshrs            0                       # number of cycles access was blocked
system.cpu.itb_walker_cache.blocked_cycles::no_targets            0                       # number of cycles access was blocked
system.cpu.itb_walker_cache.blocked::no_mshrs            0                       # number of cycles access was blocked
system.cpu.itb_walker_cache.blocked::no_targets            0                       # number of cycles access was blocked
system.cpu.itb_walker_cache.avg_blocked_cycles::no_mshrs          nan                       # average number of cycles each access was blocked
system.cpu.itb_walker_cache.avg_blocked_cycles::no_targets          nan                       # average number of cycles each access was blocked
system.cpu.itb_walker_cache.replacements            0                       # number of replacements
system.l2.tags.pwrStateResidencyTicks::UNDEFINED 5986575575000                       # Cumulative time (in ticks) in various power states
system.l2.tags.tagsinuse                  2045.719806                       # Cycle average of tags in use
system.l2.tags.total_refs                   114760663                       # Total number of references to valid blocks.
system.l2.tags.sampled_refs                   1711635                       # Sample count of references to valid blocks.
system.l2.tags.avg_refs                     67.047392                       # Average number of references to valid blocks.
system.l2.tags.warmup_cycle                    428500                       # Cycle when the warmup percentage was hit.
system.l2.tags.occ_blocks::writebacks        0.000008                       # Average occupied blocks per requestor
system.l2.tags.occ_blocks::cpu.inst          0.748121                       # Average occupied blocks per requestor
system.l2.tags.occ_blocks::cpu.data       2044.971676                       # Average occupied blocks per requestor
system.l2.tags.occ_percent::writebacks       0.000000                       # Average percentage of cache occupancy
system.l2.tags.occ_percent::cpu.inst         0.000365                       # Average percentage of cache occupancy
system.l2.tags.occ_percent::cpu.data         0.998521                       # Average percentage of cache occupancy
system.l2.tags.occ_percent::total            0.998887                       # Average percentage of cache occupancy
system.l2.tags.occ_task_id_blocks::1024          2048                       # Occupied blocks per task id
system.l2.tags.age_task_id_blocks_1024::0           30                       # Occupied blocks per task id
system.l2.tags.age_task_id_blocks_1024::1           40                       # Occupied blocks per task id
system.l2.tags.age_task_id_blocks_1024::2          302                       # Occupied blocks per task id
system.l2.tags.age_task_id_blocks_1024::3         1675                       # Occupied blocks per task id
system.l2.tags.age_task_id_blocks_1024::4            1                       # Occupied blocks per task id
system.l2.tags.occ_task_id_percent::1024            1                       # Percentage of cache occupancy per task id
system.l2.tags.tag_accesses                 460778651                       # Number of tag accesses
system.l2.tags.data_accesses                460778651                       # Number of data accesses
system.l2.pwrStateResidencyTicks::UNDEFINED 5986575575000                       # Cumulative time (in ticks) in various power states
system.l2.WritebackDirty_hits::writebacks         5651                       # number of WritebackDirty hits
system.l2.WritebackDirty_hits::total             5651                       # number of WritebackDirty hits
system.l2.WritebackClean_hits::writebacks           12                       # number of WritebackClean hits
system.l2.WritebackClean_hits::total               12                       # number of WritebackClean hits
system.l2.WriteClean_hits::writebacks        55622002                       # number of WriteClean hits
system.l2.WriteClean_hits::total             55622002                       # number of WriteClean hits
system.l2.UpgradeReq_hits::cpu.data          27810962                       # number of UpgradeReq hits
system.l2.UpgradeReq_hits::total             27810962                       # number of UpgradeReq hits
system.l2.ReadExReq_hits::cpu.data                  2                       # number of ReadExReq hits
system.l2.ReadExReq_hits::total                     2                       # number of ReadExReq hits
system.l2.ReadSharedReq_hits::cpu.data          55884                       # number of ReadSharedReq hits
system.l2.ReadSharedReq_hits::total             55884                       # number of ReadSharedReq hits
system.l2.demand_hits::cpu.data                 55886                       # number of demand (read+write) hits
system.l2.demand_hits::total                    55886                       # number of demand (read+write) hits
system.l2.overall_hits::cpu.data                55886                       # number of overall hits
system.l2.overall_hits::total                   55886                       # number of overall hits
system.l2.UpgradeReq_misses::cpu.data        27799611                       # number of UpgradeReq misses
system.l2.UpgradeReq_misses::total           27799611                       # number of UpgradeReq misses
system.l2.ReadExReq_misses::cpu.data            16992                       # number of ReadExReq misses
system.l2.ReadExReq_misses::total               16992                       # number of ReadExReq misses
system.l2.ReadCleanReq_misses::cpu.inst           351                       # number of ReadCleanReq misses
system.l2.ReadCleanReq_misses::total              351                       # number of ReadCleanReq misses
system.l2.ReadSharedReq_misses::cpu.data      1694286                       # number of ReadSharedReq misses
system.l2.ReadSharedReq_misses::total         1694286                       # number of ReadSharedReq misses
system.l2.demand_misses::cpu.inst                 351                       # number of demand (read+write) misses
system.l2.demand_misses::cpu.data             1711278                       # number of demand (read+write) misses
system.l2.demand_misses::total                1711629                       # number of demand (read+write) misses
system.l2.overall_misses::cpu.inst                351                       # number of overall misses
system.l2.overall_misses::cpu.data            1711278                       # number of overall misses
system.l2.overall_misses::total               1711629                       # number of overall misses
system.l2.UpgradeReq_miss_latency::cpu.data 3655713484500                       # number of UpgradeReq miss cycles
system.l2.UpgradeReq_miss_latency::total 3655713484500                       # number of UpgradeReq miss cycles
system.l2.ReadExReq_miss_latency::cpu.data  10040255500                       # number of ReadExReq miss cycles
system.l2.ReadExReq_miss_latency::total   10040255500                       # number of ReadExReq miss cycles
system.l2.ReadCleanReq_miss_latency::cpu.inst     87537000                       # number of ReadCleanReq miss cycles
system.l2.ReadCleanReq_miss_latency::total     87537000                       # number of ReadCleanReq miss cycles
system.l2.ReadSharedReq_miss_latency::cpu.data  53402953000                       # number of ReadSharedReq miss cycles
system.l2.ReadSharedReq_miss_latency::total  53402953000                       # number of ReadSharedReq miss cycles
system.l2.demand_miss_latency::cpu.inst      87537000                       # number of demand (read+write) miss cycles
system.l2.demand_miss_latency::cpu.data   63443208500                       # number of demand (read+write) miss cycles
system.l2.demand_miss_latency::total      63530745500                       # number of demand (read+write) miss cycles
system.l2.overall_miss_latency::cpu.inst     87537000                       # number of overall miss cycles
system.l2.overall_miss_latency::cpu.data  63443208500                       # number of overall miss cycles
system.l2.overall_miss_latency::total     63530745500                       # number of overall miss cycles
system.l2.WritebackDirty_accesses::writebacks         5651                       # number of WritebackDirty accesses(hits+misses)
system.l2.WritebackDirty_accesses::total         5651                       # number of WritebackDirty accesses(hits+misses)
system.l2.WritebackClean_accesses::writebacks           12                       # number of WritebackClean accesses(hits+misses)
system.l2.WritebackClean_accesses::total           12                       # number of WritebackClean accesses(hits+misses)
system.l2.WriteClean_accesses::writebacks     55622002                       # number of WriteClean accesses(hits+misses)
system.l2.WriteClean_accesses::total         55622002                       # number of WriteClean accesses(hits+misses)
system.l2.UpgradeReq_accesses::cpu.data      55610573                       # number of UpgradeReq accesses(hits+misses)
system.l2.UpgradeReq_accesses::total         55610573                       # number of UpgradeReq accesses(hits+misses)
system.l2.ReadExReq_accesses::cpu.data          16994                       # number of ReadExReq accesses(hits+misses)
system.l2.ReadExReq_accesses::total             16994                       # number of ReadExReq accesses(hits+misses)
system.l2.ReadCleanReq_accesses::cpu.inst          351                       # number of ReadCleanReq accesses(hits+misses)
system.l2.ReadCleanReq_accesses::total            351                       # number of ReadCleanReq accesses(hits+misses)
system.l2.ReadSharedReq_accesses::cpu.data      1750170                       # number of ReadSharedReq accesses(hits+misses)
system.l2.ReadSharedReq_accesses::total       1750170                       # number of ReadSharedReq accesses(hits+misses)
system.l2.demand_accesses::cpu.inst               351                       # number of demand (read+write) accesses
system.l2.demand_accesses::cpu.data           1767164                       # number of demand (read+write) accesses
system.l2.demand_accesses::total              1767515                       # number of demand (read+write) accesses
system.l2.overall_accesses::cpu.inst              351                       # number of overall (read+write) accesses
system.l2.overall_accesses::cpu.data          1767164                       # number of overall (read+write) accesses
system.l2.overall_accesses::total             1767515                       # number of overall (read+write) accesses
system.l2.UpgradeReq_miss_rate::cpu.data     0.499898                       # miss rate for UpgradeReq accesses
system.l2.UpgradeReq_miss_rate::total        0.499898                       # miss rate for UpgradeReq accesses
system.l2.ReadExReq_miss_rate::cpu.data      0.999882                       # miss rate for ReadExReq accesses
system.l2.ReadExReq_miss_rate::total         0.999882                       # miss rate for ReadExReq accesses
system.l2.ReadCleanReq_miss_rate::cpu.inst            1                       # miss rate for ReadCleanReq accesses
system.l2.ReadCleanReq_miss_rate::total             1                       # miss rate for ReadCleanReq accesses
system.l2.ReadSharedReq_miss_rate::cpu.data     0.968069                       # miss rate for ReadSharedReq accesses
system.l2.ReadSharedReq_miss_rate::total     0.968069                       # miss rate for ReadSharedReq accesses
system.l2.demand_miss_rate::cpu.inst                1                       # miss rate for demand accesses
system.l2.demand_miss_rate::cpu.data         0.968375                       # miss rate for demand accesses
system.l2.demand_miss_rate::total            0.968382                       # miss rate for demand accesses
system.l2.overall_miss_rate::cpu.inst               1                       # miss rate for overall accesses
system.l2.overall_miss_rate::cpu.data        0.968375                       # miss rate for overall accesses
system.l2.overall_miss_rate::total           0.968382                       # miss rate for overall accesses
system.l2.UpgradeReq_avg_miss_latency::cpu.data 131502.325140                       # average UpgradeReq miss latency
system.l2.UpgradeReq_avg_miss_latency::total 131502.325140                       # average UpgradeReq miss latency
system.l2.ReadExReq_avg_miss_latency::cpu.data 590881.326507                       # average ReadExReq miss latency
system.l2.ReadExReq_avg_miss_latency::total 590881.326507                       # average ReadExReq miss latency
system.l2.ReadCleanReq_avg_miss_latency::cpu.inst 249393.162393                       # average ReadCleanReq miss latency
system.l2.ReadCleanReq_avg_miss_latency::total 249393.162393                       # average ReadCleanReq miss latency
system.l2.ReadSharedReq_avg_miss_latency::cpu.data 31519.444179                       # average ReadSharedReq miss latency
system.l2.ReadSharedReq_avg_miss_latency::total 31519.444179                       # average ReadSharedReq miss latency
system.l2.demand_avg_miss_latency::cpu.inst 249393.162393                       # average overall miss latency
system.l2.demand_avg_miss_latency::cpu.data 37073.583895                       # average overall miss latency
system.l2.demand_avg_miss_latency::total 37117.123804                       # average overall miss latency
system.l2.overall_avg_miss_latency::cpu.inst 249393.162393                       # average overall miss latency
system.l2.overall_avg_miss_latency::cpu.data 37073.583895                       # average overall miss latency
system.l2.overall_avg_miss_latency::total 37117.123804                       # average overall miss latency
system.l2.blocked_cycles::no_mshrs                  0                       # number of cycles access was blocked
system.l2.blocked_cycles::no_targets                0                       # number of cycles access was blocked
system.l2.blocked::no_mshrs                         0                       # number of cycles access was blocked
system.l2.blocked::no_targets                       0                       # number of cycles access was blocked
system.l2.avg_blocked_cycles::no_mshrs            nan                       # average number of cycles each access was blocked
system.l2.avg_blocked_cycles::no_targets          nan                       # average number of cycles each access was blocked
system.l2.writebacks::writebacks                17058                       # number of writebacks
system.l2.writebacks::total                     17058                       # number of writebacks
system.l2.CleanEvict_mshr_misses::writebacks         6091                       # number of CleanEvict MSHR misses
system.l2.CleanEvict_mshr_misses::total          6091                       # number of CleanEvict MSHR misses
system.l2.UpgradeReq_mshr_misses::cpu.data     27799611                       # number of UpgradeReq MSHR misses
system.l2.UpgradeReq_mshr_misses::total      27799611                       # number of UpgradeReq MSHR misses
system.l2.ReadExReq_mshr_misses::cpu.data        16992                       # number of ReadExReq MSHR misses
system.l2.ReadExReq_mshr_misses::total          16992                       # number of ReadExReq MSHR misses
system.l2.ReadCleanReq_mshr_misses::cpu.inst          351                       # number of ReadCleanReq MSHR misses
system.l2.ReadCleanReq_mshr_misses::total          351                       # number of ReadCleanReq MSHR misses
system.l2.ReadSharedReq_mshr_misses::cpu.data      1694286                       # number of ReadSharedReq MSHR misses
system.l2.ReadSharedReq_mshr_misses::total      1694286                       # number of ReadSharedReq MSHR misses
system.l2.demand_mshr_misses::cpu.inst            351                       # number of demand (read+write) MSHR misses
system.l2.demand_mshr_misses::cpu.data        1711278                       # number of demand (read+write) MSHR misses
system.l2.demand_mshr_misses::total           1711629                       # number of demand (read+write) MSHR misses
system.l2.overall_mshr_misses::cpu.inst           351                       # number of overall MSHR misses
system.l2.overall_mshr_misses::cpu.data       1711278                       # number of overall MSHR misses
system.l2.overall_mshr_misses::total          1711629                       # number of overall MSHR misses
system.l2.UpgradeReq_mshr_miss_latency::cpu.data 3377717374500                       # number of UpgradeReq MSHR miss cycles
system.l2.UpgradeReq_mshr_miss_latency::total 3377717374500                       # number of UpgradeReq MSHR miss cycles
system.l2.ReadExReq_mshr_miss_latency::cpu.data   9870335500                       # number of ReadExReq MSHR miss cycles
system.l2.ReadExReq_mshr_miss_latency::total   9870335500                       # number of ReadExReq MSHR miss cycles
system.l2.ReadCleanReq_mshr_miss_latency::cpu.inst     84027000                       # number of ReadCleanReq MSHR miss cycles
system.l2.ReadCleanReq_mshr_miss_latency::total     84027000                       # number of ReadCleanReq MSHR miss cycles
system.l2.ReadSharedReq_mshr_miss_latency::cpu.data  36460093000                       # number of ReadSharedReq MSHR miss cycles
system.l2.ReadSharedReq_mshr_miss_latency::total  36460093000                       # number of ReadSharedReq MSHR miss cycles
system.l2.demand_mshr_miss_latency::cpu.inst     84027000                       # number of demand (read+write) MSHR miss cycles
system.l2.demand_mshr_miss_latency::cpu.data  46330428500                       # number of demand (read+write) MSHR miss cycles
system.l2.demand_mshr_miss_latency::total  46414455500                       # number of demand (read+write) MSHR miss cycles
system.l2.overall_mshr_miss_latency::cpu.inst     84027000                       # number of overall MSHR miss cycles
system.l2.overall_mshr_miss_latency::cpu.data  46330428500                       # number of overall MSHR miss cycles
system.l2.overall_mshr_miss_latency::total  46414455500                       # number of overall MSHR miss cycles
system.l2.CleanEvict_mshr_miss_rate::writebacks          inf                       # mshr miss rate for CleanEvict accesses
system.l2.CleanEvict_mshr_miss_rate::total          inf                       # mshr miss rate for CleanEvict accesses
system.l2.UpgradeReq_mshr_miss_rate::cpu.data     0.499898                       # mshr miss rate for UpgradeReq accesses
system.l2.UpgradeReq_mshr_miss_rate::total     0.499898                       # mshr miss rate for UpgradeReq accesses
system.l2.ReadExReq_mshr_miss_rate::cpu.data     0.999882                       # mshr miss rate for ReadExReq accesses
system.l2.ReadExReq_mshr_miss_rate::total     0.999882                       # mshr miss rate for ReadExReq accesses
system.l2.ReadCleanReq_mshr_miss_rate::cpu.inst            1                       # mshr miss rate for ReadCleanReq accesses
system.l2.ReadCleanReq_mshr_miss_rate::total            1                       # mshr miss rate for ReadCleanReq accesses
system.l2.ReadSharedReq_mshr_miss_rate::cpu.data     0.968069                       # mshr miss rate for ReadSharedReq accesses
system.l2.ReadSharedReq_mshr_miss_rate::total     0.968069                       # mshr miss rate for ReadSharedReq accesses
system.l2.demand_mshr_miss_rate::cpu.inst            1                       # mshr miss rate for demand accesses
system.l2.demand_mshr_miss_rate::cpu.data     0.968375                       # mshr miss rate for demand accesses
system.l2.demand_mshr_miss_rate::total       0.968382                       # mshr miss rate for demand accesses
system.l2.overall_mshr_miss_rate::cpu.inst            1                       # mshr miss rate for overall accesses
system.l2.overall_mshr_miss_rate::cpu.data     0.968375                       # mshr miss rate for overall accesses
system.l2.overall_mshr_miss_rate::total      0.968382                       # mshr miss rate for overall accesses
system.l2.UpgradeReq_avg_mshr_miss_latency::cpu.data 121502.325140                       # average UpgradeReq mshr miss latency
system.l2.UpgradeReq_avg_mshr_miss_latency::total 121502.325140                       # average UpgradeReq mshr miss latency
system.l2.ReadExReq_avg_mshr_miss_latency::cpu.data 580881.326507                       # average ReadExReq mshr miss latency
system.l2.ReadExReq_avg_mshr_miss_latency::total 580881.326507                       # average ReadExReq mshr miss latency
system.l2.ReadCleanReq_avg_mshr_miss_latency::cpu.inst 239393.162393                       # average ReadCleanReq mshr miss latency
system.l2.ReadCleanReq_avg_mshr_miss_latency::total 239393.162393                       # average ReadCleanReq mshr miss latency
system.l2.ReadSharedReq_avg_mshr_miss_latency::cpu.data 21519.444179                       # average ReadSharedReq mshr miss latency
system.l2.ReadSharedReq_avg_mshr_miss_latency::total 21519.444179                       # average ReadSharedReq mshr miss latency
system.l2.demand_avg_mshr_miss_latency::cpu.inst 239393.162393                       # average overall mshr miss latency
system.l2.demand_avg_mshr_miss_latency::cpu.data 27073.583895                       # average overall mshr miss latency
system.l2.demand_avg_mshr_miss_latency::total 27117.123804                       # average overall mshr miss latency
system.l2.overall_avg_mshr_miss_latency::cpu.inst 239393.162393                       # average overall mshr miss latency
system.l2.overall_avg_mshr_miss_latency::cpu.data 27073.583895                       # average overall mshr miss latency
system.l2.overall_avg_mshr_miss_latency::total 27117.123804                       # average overall mshr miss latency
system.l2.replacements                        1709587                       # number of replacements
system.l3.tags.pwrStateResidencyTicks::UNDEFINED 5986575575000                       # Cumulative time (in ticks) in various power states
system.l3.tags.tagsinuse                 14165.717400                       # Cycle average of tags in use
system.l3.tags.total_refs                    59031476                       # Total number of references to valid blocks.
system.l3.tags.sampled_refs                     17452                       # Sample count of references to valid blocks.
system.l3.tags.avg_refs                   3382.504928                       # Average number of references to valid blocks.
system.l3.tags.warmup_cycle                    418000                       # Cycle when the warmup percentage was hit.
system.l3.tags.occ_blocks::cpu.inst        147.951851                       # Average occupied blocks per requestor
system.l3.tags.occ_blocks::cpu.data      14017.765550                       # Average occupied blocks per requestor
system.l3.tags.occ_percent::cpu.inst         0.009030                       # Average percentage of cache occupancy
system.l3.tags.occ_percent::cpu.data         0.855577                       # Average percentage of cache occupancy
system.l3.tags.occ_percent::total            0.864607                       # Average percentage of cache occupancy
system.l3.tags.occ_task_id_blocks::1024         16384                       # Occupied blocks per task id
system.l3.tags.age_task_id_blocks_1024::0           27                       # Occupied blocks per task id
system.l3.tags.age_task_id_blocks_1024::1           37                       # Occupied blocks per task id
system.l3.tags.age_task_id_blocks_1024::2            1                       # Occupied blocks per task id
system.l3.tags.age_task_id_blocks_1024::3           10                       # Occupied blocks per task id
system.l3.tags.age_task_id_blocks_1024::4        16309                       # Occupied blocks per task id
system.l3.tags.occ_task_id_percent::1024            1                       # Percentage of cache occupancy per task id
system.l3.tags.tag_accesses                 236143356                       # Number of tag accesses
system.l3.tags.data_accesses                236143356                       # Number of data accesses
system.l3.pwrStateResidencyTicks::UNDEFINED 5986575575000                       # Cumulative time (in ticks) in various power states
system.l3.WritebackDirty_hits::writebacks        17058                       # number of WritebackDirty hits
system.l3.WritebackDirty_hits::total            17058                       # number of WritebackDirty hits
system.l3.WriteClean_hits::writebacks        27810964                       # number of WriteClean hits
system.l3.WriteClean_hits::total             27810964                       # number of WriteClean hits
system.l3.UpgradeReq_hits::cpu.data          13905476                       # number of UpgradeReq hits
system.l3.UpgradeReq_hits::total             13905476                       # number of UpgradeReq hits
system.l3.ReadSharedReq_hits::cpu.data        1694177                       # number of ReadSharedReq hits
system.l3.ReadSharedReq_hits::total           1694177                       # number of ReadSharedReq hits
system.l3.demand_hits::cpu.data               1694177                       # number of demand (read+write) hits
system.l3.demand_hits::total                  1694177                       # number of demand (read+write) hits
system.l3.overall_hits::cpu.data              1694177                       # number of overall hits
system.l3.overall_hits::total                 1694177                       # number of overall hits
system.l3.UpgradeReq_misses::cpu.data        13894135                       # number of UpgradeReq misses
system.l3.UpgradeReq_misses::total           13894135                       # number of UpgradeReq misses
system.l3.ReadExReq_misses::cpu.data            16992                       # number of ReadExReq misses
system.l3.ReadExReq_misses::total               16992                       # number of ReadExReq misses
system.l3.ReadSharedReq_misses::cpu.inst          351                       # number of ReadSharedReq misses
system.l3.ReadSharedReq_misses::cpu.data          109                       # number of ReadSharedReq misses
system.l3.ReadSharedReq_misses::total             460                       # number of ReadSharedReq misses
system.l3.demand_misses::cpu.inst                 351                       # number of demand (read+write) misses
system.l3.demand_misses::cpu.data               17101                       # number of demand (read+write) misses
system.l3.demand_misses::total                  17452                       # number of demand (read+write) misses
system.l3.overall_misses::cpu.inst                351                       # number of overall misses
system.l3.overall_misses::cpu.data              17101                       # number of overall misses
system.l3.overall_misses::total                 17452                       # number of overall misses
system.l3.UpgradeReq_miss_latency::cpu.data 2925887634480                       # number of UpgradeReq miss cycles
system.l3.UpgradeReq_miss_latency::total 2925887634480                       # number of UpgradeReq miss cycles
system.l3.ReadExReq_miss_latency::cpu.data   9683423500                       # number of ReadExReq miss cycles
system.l3.ReadExReq_miss_latency::total    9683423500                       # number of ReadExReq miss cycles
system.l3.ReadSharedReq_miss_latency::cpu.inst     80166000                       # number of ReadSharedReq miss cycles
system.l3.ReadSharedReq_miss_latency::cpu.data     34088500                       # number of ReadSharedReq miss cycles
system.l3.ReadSharedReq_miss_latency::total    114254500                       # number of ReadSharedReq miss cycles
system.l3.demand_miss_latency::cpu.inst      80166000                       # number of demand (read+write) miss cycles
system.l3.demand_miss_latency::cpu.data    9717512000                       # number of demand (read+write) miss cycles
system.l3.demand_miss_latency::total       9797678000                       # number of demand (read+write) miss cycles
system.l3.overall_miss_latency::cpu.inst     80166000                       # number of overall miss cycles
system.l3.overall_miss_latency::cpu.data   9717512000                       # number of overall miss cycles
system.l3.overall_miss_latency::total      9797678000                       # number of overall miss cycles
system.l3.WritebackDirty_accesses::writebacks        17058                       # number of WritebackDirty accesses(hits+misses)
system.l3.WritebackDirty_accesses::total        17058                       # number of WritebackDirty accesses(hits+misses)
system.l3.WriteClean_accesses::writebacks     27810964                       # number of WriteClean accesses(hits+misses)
system.l3.WriteClean_accesses::total         27810964                       # number of WriteClean accesses(hits+misses)
system.l3.UpgradeReq_accesses::cpu.data      27799611                       # number of UpgradeReq accesses(hits+misses)
system.l3.UpgradeReq_accesses::total         27799611                       # number of UpgradeReq accesses(hits+misses)
system.l3.ReadExReq_accesses::cpu.data          16992                       # number of ReadExReq accesses(hits+misses)
system.l3.ReadExReq_accesses::total             16992                       # number of ReadExReq accesses(hits+misses)
system.l3.ReadSharedReq_accesses::cpu.inst          351                       # number of ReadSharedReq accesses(hits+misses)
system.l3.ReadSharedReq_accesses::cpu.data      1694286                       # number of ReadSharedReq accesses(hits+misses)
system.l3.ReadSharedReq_accesses::total       1694637                       # number of ReadSharedReq accesses(hits+misses)
system.l3.demand_accesses::cpu.inst               351                       # number of demand (read+write) accesses
system.l3.demand_accesses::cpu.data           1711278                       # number of demand (read+write) accesses
system.l3.demand_accesses::total              1711629                       # number of demand (read+write) accesses
system.l3.overall_accesses::cpu.inst              351                       # number of overall (read+write) accesses
system.l3.overall_accesses::cpu.data          1711278                       # number of overall (read+write) accesses
system.l3.overall_accesses::total             1711629                       # number of overall (read+write) accesses
system.l3.UpgradeReq_miss_rate::cpu.data     0.499796                       # miss rate for UpgradeReq accesses
system.l3.UpgradeReq_miss_rate::total        0.499796                       # miss rate for UpgradeReq accesses
system.l3.ReadExReq_miss_rate::cpu.data             1                       # miss rate for ReadExReq accesses
system.l3.ReadExReq_miss_rate::total                1                       # miss rate for ReadExReq accesses
system.l3.ReadSharedReq_miss_rate::cpu.inst            1                       # miss rate for ReadSharedReq accesses
system.l3.ReadSharedReq_miss_rate::cpu.data     0.000064                       # miss rate for ReadSharedReq accesses
system.l3.ReadSharedReq_miss_rate::total     0.000271                       # miss rate for ReadSharedReq accesses
system.l3.demand_miss_rate::cpu.inst                1                       # miss rate for demand accesses
system.l3.demand_miss_rate::cpu.data         0.009993                       # miss rate for demand accesses
system.l3.demand_miss_rate::total            0.010196                       # miss rate for demand accesses
system.l3.overall_miss_rate::cpu.inst               1                       # miss rate for overall accesses
system.l3.overall_miss_rate::cpu.data        0.009993                       # miss rate for overall accesses
system.l3.overall_miss_rate::total           0.010196                       # miss rate for overall accesses
system.l3.UpgradeReq_avg_miss_latency::cpu.data 210584.367755                       # average UpgradeReq miss latency
system.l3.UpgradeReq_avg_miss_latency::total 210584.367755                       # average UpgradeReq miss latency
system.l3.ReadExReq_avg_miss_latency::cpu.data 569881.326507                       # average ReadExReq miss latency
system.l3.ReadExReq_avg_miss_latency::total 569881.326507                       # average ReadExReq miss latency
system.l3.ReadSharedReq_avg_miss_latency::cpu.inst 228393.162393                       # average ReadSharedReq miss latency
system.l3.ReadSharedReq_avg_miss_latency::cpu.data 312738.532110                       # average ReadSharedReq miss latency
system.l3.ReadSharedReq_avg_miss_latency::total 248379.347826                       # average ReadSharedReq miss latency
system.l3.demand_avg_miss_latency::cpu.inst 228393.162393                       # average overall miss latency
system.l3.demand_avg_miss_latency::cpu.data 568242.325010                       # average overall miss latency
system.l3.demand_avg_miss_latency::total 561407.173963                       # average overall miss latency
system.l3.overall_avg_miss_latency::cpu.inst 228393.162393                       # average overall miss latency
system.l3.overall_avg_miss_latency::cpu.data 568242.325010                       # average overall miss latency
system.l3.overall_avg_miss_latency::total 561407.173963                       # average overall miss latency
system.l3.blocked_cycles::no_mshrs                  0                       # number of cycles access was blocked
system.l3.blocked_cycles::no_targets                0                       # number of cycles access was blocked
system.l3.blocked::no_mshrs                         0                       # number of cycles access was blocked
system.l3.blocked::no_targets                       0                       # number of cycles access was blocked
system.l3.avg_blocked_cycles::no_mshrs            nan                       # average number of cycles each access was blocked
system.l3.avg_blocked_cycles::no_targets          nan                       # average number of cycles each access was blocked
system.l3.writebacks::writebacks                  745                       # number of writebacks
system.l3.writebacks::total                       745                       # number of writebacks
system.l3.UpgradeReq_mshr_misses::cpu.data     13894135                       # number of UpgradeReq MSHR misses
system.l3.UpgradeReq_mshr_misses::total      13894135                       # number of UpgradeReq MSHR misses
system.l3.ReadExReq_mshr_misses::cpu.data        16992                       # number of ReadExReq MSHR misses
system.l3.ReadExReq_mshr_misses::total          16992                       # number of ReadExReq MSHR misses
system.l3.ReadSharedReq_mshr_misses::cpu.inst          351                       # number of ReadSharedReq MSHR misses
system.l3.ReadSharedReq_mshr_misses::cpu.data          109                       # number of ReadSharedReq MSHR misses
system.l3.ReadSharedReq_mshr_misses::total          460                       # number of ReadSharedReq MSHR misses
system.l3.demand_mshr_misses::cpu.inst            351                       # number of demand (read+write) MSHR misses
system.l3.demand_mshr_misses::cpu.data          17101                       # number of demand (read+write) MSHR misses
system.l3.demand_mshr_misses::total             17452                       # number of demand (read+write) MSHR misses
system.l3.overall_mshr_misses::cpu.inst           351                       # number of overall MSHR misses
system.l3.overall_mshr_misses::cpu.data         17101                       # number of overall MSHR misses
system.l3.overall_mshr_misses::total            17452                       # number of overall MSHR misses
system.l3.UpgradeReq_mshr_miss_latency::cpu.data 2786946284480                       # number of UpgradeReq MSHR miss cycles
system.l3.UpgradeReq_mshr_miss_latency::total 2786946284480                       # number of UpgradeReq MSHR miss cycles
system.l3.ReadExReq_mshr_miss_latency::cpu.data   9513503500                       # number of ReadExReq MSHR miss cycles
system.l3.ReadExReq_mshr_miss_latency::total   9513503500                       # number of ReadExReq MSHR miss cycles
system.l3.ReadSharedReq_mshr_miss_latency::cpu.inst     76656000                       # number of ReadSharedReq MSHR miss cycles
system.l3.ReadSharedReq_mshr_miss_latency::cpu.data     32998500                       # number of ReadSharedReq MSHR miss cycles
system.l3.ReadSharedReq_mshr_miss_latency::total    109654500                       # number of ReadSharedReq MSHR miss cycles
system.l3.demand_mshr_miss_latency::cpu.inst     76656000                       # number of demand (read+write) MSHR miss cycles
system.l3.demand_mshr_miss_latency::cpu.data   9546502000                       # number of demand (read+write) MSHR miss cycles
system.l3.demand_mshr_miss_latency::total   9623158000                       # number of demand (read+write) MSHR miss cycles
system.l3.overall_mshr_miss_latency::cpu.inst     76656000                       # number of overall MSHR miss cycles
system.l3.overall_mshr_miss_latency::cpu.data   9546502000                       # number of overall MSHR miss cycles
system.l3.overall_mshr_miss_latency::total   9623158000                       # number of overall MSHR miss cycles
system.l3.UpgradeReq_mshr_miss_rate::cpu.data     0.499796                       # mshr miss rate for UpgradeReq accesses
system.l3.UpgradeReq_mshr_miss_rate::total     0.499796                       # mshr miss rate for UpgradeReq accesses
system.l3.ReadExReq_mshr_miss_rate::cpu.data            1                       # mshr miss rate for ReadExReq accesses
system.l3.ReadExReq_mshr_miss_rate::total            1                       # mshr miss rate for ReadExReq accesses
system.l3.ReadSharedReq_mshr_miss_rate::cpu.inst            1                       # mshr miss rate for ReadSharedReq accesses
system.l3.ReadSharedReq_mshr_miss_rate::cpu.data     0.000064                       # mshr miss rate for ReadSharedReq accesses
system.l3.ReadSharedReq_mshr_miss_rate::total     0.000271                       # mshr miss rate for ReadSharedReq accesses
system.l3.demand_mshr_miss_rate::cpu.inst            1                       # mshr miss rate for demand accesses
system.l3.demand_mshr_miss_rate::cpu.data     0.009993                       # mshr miss rate for demand accesses
system.l3.demand_mshr_miss_rate::total       0.010196                       # mshr miss rate for demand accesses
system.l3.overall_mshr_miss_rate::cpu.inst            1                       # mshr miss rate for overall accesses
system.l3.overall_mshr_miss_rate::cpu.data     0.009993                       # mshr miss rate for overall accesses
system.l3.overall_mshr_miss_rate::total      0.010196                       # mshr miss rate for overall accesses
system.l3.UpgradeReq_avg_mshr_miss_latency::cpu.data 200584.367755                       # average UpgradeReq mshr miss latency
system.l3.UpgradeReq_avg_mshr_miss_latency::total 200584.367755                       # average UpgradeReq mshr miss latency
system.l3.ReadExReq_avg_mshr_miss_latency::cpu.data 559881.326507                       # average ReadExReq mshr miss latency
system.l3.ReadExReq_avg_mshr_miss_latency::total 559881.326507                       # average ReadExReq mshr miss latency
system.l3.ReadSharedReq_avg_mshr_miss_latency::cpu.inst 218393.162393                       # average ReadSharedReq mshr miss latency
system.l3.ReadSharedReq_avg_mshr_miss_latency::cpu.data 302738.532110                       # average ReadSharedReq mshr miss latency
system.l3.ReadSharedReq_avg_mshr_miss_latency::total 238379.347826                       # average ReadSharedReq mshr miss latency
system.l3.demand_avg_mshr_miss_latency::cpu.inst 218393.162393                       # average overall mshr miss latency
system.l3.demand_avg_mshr_miss_latency::cpu.data 558242.325010                       # average overall mshr miss latency
system.l3.demand_avg_mshr_miss_latency::total 551407.173963                       # average overall mshr miss latency
system.l3.overall_avg_mshr_miss_latency::cpu.inst 218393.162393                       # average overall mshr miss latency
system.l3.overall_avg_mshr_miss_latency::cpu.data 558242.325010                       # average overall mshr miss latency
system.l3.overall_avg_mshr_miss_latency::total 551407.173963                       # average overall mshr miss latency
system.l3.replacements                           1068                       # number of replacements
system.membus.snoop_filter.tot_requests      13912349                       # Total number of requests made to the snoop filter.
system.membus.snoop_filter.hit_single_requests     13894897                       # Number of requests hitting in the snoop filter with a single holder of the requested data.
system.membus.snoop_filter.hit_multi_requests            0                       # Number of requests hitting in the snoop filter with multiple (>1) holders of the requested data.
system.membus.snoop_filter.tot_snoops               0                       # Total number of snoops made to the snoop filter.
system.membus.snoop_filter.hit_single_snoops            0                       # Number of snoops hitting in the snoop filter with a single holder of the requested data.
system.membus.snoop_filter.hit_multi_snoops            0                       # Number of snoops hitting in the snoop filter with multiple (>1) holders of the requested data.
system.membus.pwrStateResidencyTicks::UNDEFINED 5986575575000                       # Cumulative time (in ticks) in various power states
system.membus.trans_dist::ReadResp                460                       # Transaction distribution
system.membus.trans_dist::WritebackDirty          745                       # Transaction distribution
system.membus.trans_dist::WriteClean         13905476                       # Transaction distribution
system.membus.trans_dist::CleanEvict               17                       # Transaction distribution
system.membus.trans_dist::UpgradeReq         13894135                       # Transaction distribution
system.membus.trans_dist::ReadExReq             16992                       # Transaction distribution
system.membus.trans_dist::ReadExResp            16992                       # Transaction distribution
system.membus.trans_dist::ReadSharedReq           460                       # Transaction distribution
system.membus.pkt_count_system.l3.mem_side::system.mem_ctrls.port     27835277                       # Packet count per connected master and slave (bytes)
system.membus.pkt_count_system.l3.mem_side::total     27835277                       # Packet count per connected master and slave (bytes)
system.membus.pkt_count::total               27835277                       # Packet count per connected master and slave (bytes)
system.membus.pkt_size_system.l3.mem_side::system.mem_ctrls.port    891115072                       # Cumulative packet size per connected master and slave (bytes)
system.membus.pkt_size_system.l3.mem_side::total    891115072                       # Cumulative packet size per connected master and slave (bytes)
system.membus.pkt_size::total               891115072                       # Cumulative packet size per connected master and slave (bytes)
system.membus.snoops                                0                       # Total snoops (count)
system.membus.snoopTraffic                          0                       # Total snoop traffic (bytes)
system.membus.snoop_fanout::samples          13911587                       # Request fanout histogram
system.membus.snoop_fanout::mean                    0                       # Request fanout histogram
system.membus.snoop_fanout::stdev                   0                       # Request fanout histogram
system.membus.snoop_fanout::underflows              0      0.00%      0.00% # Request fanout histogram
system.membus.snoop_fanout::0                13911587    100.00%    100.00% # Request fanout histogram
system.membus.snoop_fanout::1                       0      0.00%    100.00% # Request fanout histogram
system.membus.snoop_fanout::overflows               0      0.00%    100.00% # Request fanout histogram
system.membus.snoop_fanout::min_value               0                       # Request fanout histogram
system.membus.snoop_fanout::max_value               0                       # Request fanout histogram
system.membus.snoop_fanout::total            13911587                       # Request fanout histogram
system.membus.reqLayer2.occupancy         95354249000                       # Layer occupancy (ticks)
system.membus.reqLayer2.utilization               1.6                       # Layer utilization (%)
system.membus.respLayer1.occupancy           88736000                       # Layer occupancy (ticks)
system.membus.respLayer1.utilization              0.0                       # Layer utilization (%)
system.tol2bus.snoop_filter.tot_requests     59144752                       # Total number of requests made to the snoop filter.
system.tol2bus.snoop_filter.hit_single_requests     57377237                       # Number of requests hitting in the snoop filter with a single holder of the requested data.
system.tol2bus.snoop_filter.hit_multi_requests            0                       # Number of requests hitting in the snoop filter with multiple (>1) holders of the requested data.
system.tol2bus.snoop_filter.tot_snoops       41723157                       # Total number of snoops made to the snoop filter.
system.tol2bus.snoop_filter.hit_single_snoops     41723157                       # Number of snoops hitting in the snoop filter with a single holder of the requested data.
system.tol2bus.snoop_filter.hit_multi_snoops            0                       # Number of snoops hitting in the snoop filter with multiple (>1) holders of the requested data.
system.tol2bus.pwrStateResidencyTicks::UNDEFINED 5986575575000                       # Cumulative time (in ticks) in various power states
system.tol2bus.trans_dist::ReadResp           1750521                       # Transaction distribution
system.tol2bus.trans_dist::WritebackDirty        22709                       # Transaction distribution
system.tol2bus.trans_dist::WritebackClean           12                       # Transaction distribution
system.tol2bus.trans_dist::WriteClean        97338442                       # Transaction distribution
system.tol2bus.trans_dist::CleanEvict         3453836                       # Transaction distribution
system.tol2bus.trans_dist::UpgradeReq        55610573                       # Transaction distribution
system.tol2bus.trans_dist::UpgradeResp       55610573                       # Transaction distribution
system.tol2bus.trans_dist::ReadExReq            16994                       # Transaction distribution
system.tol2bus.trans_dist::ReadExResp           16994                       # Transaction distribution
system.tol2bus.trans_dist::ReadCleanReq           351                       # Transaction distribution
system.tol2bus.trans_dist::ReadSharedReq      1750170                       # Transaction distribution
system.tol2bus.pkt_count_system.cpu.icache.mem_side::system.l2.cpu_side          714                       # Packet count per connected master and slave (bytes)
system.tol2bus.pkt_count_system.cpu.dcache.mem_side::system.l2.cpu_side    172144128                       # Packet count per connected master and slave (bytes)
system.tol2bus.pkt_count::total             172144842                       # Packet count per connected master and slave (bytes)
system.tol2bus.pkt_size_system.cpu.icache.mem_side::system.l2.cpu_side        23232                       # Cumulative packet size per connected master and slave (bytes)
system.tol2bus.pkt_size_system.cpu.dcache.mem_side::system.l2.cpu_side   3673268288                       # Cumulative packet size per connected master and slave (bytes)
system.tol2bus.pkt_size::total             3673291520                       # Cumulative packet size per connected master and slave (bytes)
system.tol2bus.snoops                        43426333                       # Total snoops (count)
system.tol2bus.snoopTraffic                2670943872                       # Total snoop traffic (bytes)
system.tol2bus.snoop_fanout::samples        100804421                       # Request fanout histogram
system.tol2bus.snoop_fanout::mean            0.413902                       # Request fanout histogram
system.tol2bus.snoop_fanout::stdev           0.492531                       # Request fanout histogram
system.tol2bus.snoop_fanout::underflows             0      0.00%      0.00% # Request fanout histogram
system.tol2bus.snoop_fanout::0               59081264     58.61%     58.61% # Request fanout histogram
system.tol2bus.snoop_fanout::1               41723157     41.39%    100.00% # Request fanout histogram
system.tol2bus.snoop_fanout::2                      0      0.00%    100.00% # Request fanout histogram
system.tol2bus.snoop_fanout::3                      0      0.00%    100.00% # Request fanout histogram
system.tol2bus.snoop_fanout::4                      0      0.00%    100.00% # Request fanout histogram
system.tol2bus.snoop_fanout::overflows              0      0.00%    100.00% # Request fanout histogram
system.tol2bus.snoop_fanout::min_value              0                       # Request fanout histogram
system.tol2bus.snoop_fanout::max_value              1                       # Request fanout histogram
system.tol2bus.snoop_fanout::total          100804421                       # Request fanout histogram
system.tol2bus.reqLayer0.occupancy       113011042000                       # Layer occupancy (ticks)
system.tol2bus.reqLayer0.utilization              1.9                       # Layer utilization (%)
system.tol2bus.respLayer0.occupancy            526500                       # Layer occupancy (ticks)
system.tol2bus.respLayer0.utilization             0.0                       # Layer utilization (%)
system.tol2bus.respLayer1.occupancy       30456032500                       # Layer occupancy (ticks)
system.tol2bus.respLayer1.utilization             0.5                       # Layer utilization (%)
system.tol3bus.snoop_filter.tot_requests     31220522                       # Total number of requests made to the snoop filter.
system.tol3bus.snoop_filter.hit_single_requests     29508893                       # Number of requests hitting in the snoop filter with a single holder of the requested data.
system.tol3bus.snoop_filter.hit_multi_requests            0                       # Number of requests hitting in the snoop filter with multiple (>1) holders of the requested data.
system.tol3bus.snoop_filter.tot_snoops       13905782                       # Total number of snoops made to the snoop filter.
system.tol3bus.snoop_filter.hit_single_snoops     13905782                       # Number of snoops hitting in the snoop filter with a single holder of the requested data.
system.tol3bus.snoop_filter.hit_multi_snoops            0                       # Number of snoops hitting in the snoop filter with multiple (>1) holders of the requested data.
system.tol3bus.pwrStateResidencyTicks::UNDEFINED 5986575575000                       # Cumulative time (in ticks) in various power states
system.tol3bus.trans_dist::ReadResp           1694637                       # Transaction distribution
system.tol3bus.trans_dist::WritebackDirty        17803                       # Transaction distribution
system.tol3bus.trans_dist::WriteClean        41716440                       # Transaction distribution
system.tol3bus.trans_dist::CleanEvict         1692537                       # Transaction distribution
system.tol3bus.trans_dist::UpgradeReq        27799611                       # Transaction distribution
system.tol3bus.trans_dist::UpgradeResp       27799611                       # Transaction distribution
system.tol3bus.trans_dist::ReadExReq            16992                       # Transaction distribution
system.tol3bus.trans_dist::ReadExResp           16992                       # Transaction distribution
system.tol3bus.trans_dist::ReadSharedReq      1694637                       # Transaction distribution
system.tol3bus.pkt_count_system.l2.mem_side::system.l3.cpu_side     88542716                       # Packet count per connected master and slave (bytes)
system.tol3bus.pkt_size_system.l2.mem_side::system.l3.cpu_side   1890537664                       # Cumulative packet size per connected master and slave (bytes)
system.tol3bus.snoops                        13906544                       # Total snoops (count)
system.tol3bus.snoopTraffic                 889998144                       # Total snoop traffic (bytes)
system.tol3bus.snoop_fanout::samples         43417794                       # Request fanout histogram
system.tol3bus.snoop_fanout::mean            0.320278                       # Request fanout histogram
system.tol3bus.snoop_fanout::stdev           0.466583                       # Request fanout histogram
system.tol3bus.snoop_fanout::underflows             0      0.00%      0.00% # Request fanout histogram
system.tol3bus.snoop_fanout::0               29512012     67.97%     67.97% # Request fanout histogram
system.tol3bus.snoop_fanout::1               13905782     32.03%    100.00% # Request fanout histogram
system.tol3bus.snoop_fanout::overflows              0      0.00%    100.00% # Request fanout histogram
system.tol3bus.snoop_fanout::min_value              0                       # Request fanout histogram
system.tol3bus.snoop_fanout::max_value              1                       # Request fanout histogram
system.tol3bus.snoop_fanout::total           43417794                       # Request fanout histogram
system.tol3bus.reqLayer0.occupancy        57343779980                       # Layer occupancy (ticks)
system.tol3bus.reqLayer0.utilization              1.0                       # Layer utilization (%)
system.tol3bus.respLayer0.occupancy       16467249000                       # Layer occupancy (ticks)
system.tol3bus.respLayer0.utilization             0.3                       # Layer utilization (%)

---------- End Simulation Statistics   ----------
